/*--------------------------------*- C++ -*----------------------------------*\
| =========                 |                                                 |
| \\      /  F ield         | foam-extend: Open Source CFD                    |
|  \\    /   O peration     | Version:     4.1                                |
|   \\  /    A nd           | Web:         http://www.foam-extend.org         |
|    \\/     M anipulation  |                                                 |
\*---------------------------------------------------------------------------*/
FoamFile
{
    version     2.0;
    format      ascii;
    class       dictionary;
    location    "system";
    object      fvSchemes;
}
// * * * * * * * * * * * * * * * * * * * * * * * * * * * * * * * * * * * * * //

ddtSchemes
{
    default         CrankNicolson 0.3;
}

gradSchemes
{
    default         leastSquares; 
}

divSchemes
{
    default         none;

    div(phi,U)      Gauss linearUpwind leastSquares;
    div(phi,Yi)     Gauss limitedLinear01 1;
    div(phi,hs)     Gauss limitedLinear   1;
    div(phi,k)      Gauss upwind;
    div(phi,epsilon)      Gauss upwind;
    div((muEff*dev2(T(grad(U))))) Gauss linear;
}

laplacianSchemes
{
    default         Gauss linear limited 1;
}

interpolationSchemes
{
    default         linear;
}

snGradSchemes
{
    default         limited 1;
}

// ************************************************************************* //
