/*--------------------------------*- C++ -*----------------------------------*\
| =========                 |                                                 |
| \\      /  F ield         | OpenFOAM: The Open Source CFD Toolbox           |
|  \\    /   O peration     | Version:  2.0.1                                 |
|   \\  /    A nd           | Web:      www.OpenFOAM.com                      |
|    \\/     M anipulation  |                                                 |
\*---------------------------------------------------------------------------*/
FoamFile
{
    version     2.1;
    format      ascii;
    class       dictionary;
    object      blockMeshDict;
}

// * * * * * * * * * * * * * * * * * * * * * * * * * * * * * * * * * * * * * //

scale 0.001;

a 20;
b 20;
c 30; 
yi -8;
yf 8;
zi -12;
zf 12;
xi -8;
xf 8;

vertices
(
    ($xi $yi $zi) //0
    ($xf $yi $zi) //1
    ($xf $yf $zi) //2
    ($xi $yf $zi) //3
    ($xi $yi $zf) //4
    ($xf $yi $zf) //5
    ($xf $yf $zf) //6
    ($xi $yf $zf) //7
);


blocks
(
    hex (0 1 2 3 4 5 6 7) ($a $b $c) simpleGrading (1 1 1)
);

edges
(
);

patches
(    
    patch outlet
    (
        (7 6 5 4)
    )
    patch inlet
    (
        (0 1 2 3)
    ) 
    wall wall 
    (
        (0 4 5 1)
        (1 5 6 2)
        (2 6 7 3)
	    (3 7 4 0)
    )

);

mergePatchPairs
(
);

// ************************************************************************* //
