/*--------------------------------*- C++ -*----------------------------------*\
| =========                 |                                                 |
| \\      /  F ield         | OpenFOAM: The Open Source CFD Toolbox           |
|  \\    /   O peration     | Version:  2.1.1                                 |
|   \\  /    A nd           | Web:      www.OpenFOAM.com                      |
|    \\/     M anipulation  |                                                 |
\*---------------------------------------------------------------------------*/
FoamFile
{
    version     2.1;
    format      ascii;
    class       dictionary;
    location    "system";
    object      controlDict;
}
// * * * * * * * * * * * * * * * * * * * * * * * * * * * * * * * * * * * * * //

application     reactingFoam;

startFrom       startTime;

startTime       0; 

stopAt          endTime;

endTime         4000;

deltaT          0.001;

writeControl    adjustableRunTime;

writeInterval   50;

purgeWrite      0;

writeFormat     ascii;

writePrecision  8;

writeCompression uncompressed;

timeFormat      general;

timePrecision   6;

runTimeModifiable yes;

adjustTimeStep yes;

maxCo       0.5; 

maxDi       5000;

//maxDeltaT	0.05;

functions
(
    probes
    {
        type            probes;
        functionObjectLibs ("libsampling.so");
        enabled         true;
        outputControl   timeStep;
        outputInterval  1;
        probeLocations
        (
            ( 0.0 0.0 0.0)
            ( 0.0 0.0 0.00092)
            ( 0.0 0.0 0.00184)

        );
        fields
        (
            p
            Ts
            T
            N2
            targas
            gas
            Ywood
            Ychar
            Ychar1
            porosityF
            rhos 
            Msolidtotal
            Srho
        );
    }
);
// ************************************************************************* //
