/*--------------------------------*- C++ -*----------------------------------*\
  =========                 |
  \\      /  F ield         | OpenFOAM: The Open Source CFD Toolbox
   \\    /   O peration     | Website:  https://openfoam.org
    \\  /    A nd           | Version:  8
     \\/     M anipulation  |
\*---------------------------------------------------------------------------*/
FoamFile
{
    version     2.0;
    format      ascii;
    class       dictionary;
    location    "system";
    object      controlDict;
}
// * * * * * * * * * * * * * * * * * * * * * * * * * * * * * * * * * * * * * //

application     porousGasificationFoam;

startFrom       latestTime;//startTime;

startTime       0; 

stopAt          endTime;

endTime         4000;

deltaT          0.004;

writeControl    adjustableRunTime;

writeInterval   50;

purgeWrite      0;

writeFormat     ascii;

writePrecision  8;

writeCompression off;

timeFormat      general;

timePrecision   6;

runTimeModifiable yes;

adjustTimeStep no;

maxCo       0.7;

maxDi       5000;

maxDeltaT	1;

functions
{
    residuals
    {
        type            solverInfo;
        libs            (utilityFunctionObjects);
        fields          ("p,U,Ts");
    }

    #includeFunc probes
}

// ************************************************************************* //
