/*--------------------------------*- C++ -*----------------------------------*\
| =========                 |                                                 |
| \\      /  F ield         | foam-extend: Open Source CFD                    |
|  \\    /   O peration     | Version:     4.1                                |
|   \\  /    A nd           | Web:         http://www.foam-extend.org         |
|    \\/     M anipulation  |                                                 |
\*---------------------------------------------------------------------------*/
FoamFile
{
    version     2.1;
    format      ascii;
    class       dictionary;
    location    "system";
    object      controlDict;
}
// * * * * * * * * * * * * * * * * * * * * * * * * * * * * * * * * * * * * * //

application     porousGasificationFoam;

startFrom       latestTime;

startTime       0;

stopAt          endTime;

endTime         60.1;

deltaT          0.0001;

writeControl    adjustableRunTime;

writeInterval   20;

purgeWrite      0;

writeFormat     ascii;

writePrecision  10;

writeCompression uncompressed;

timeFormat      general;

timePrecision   6;

runTimeModifiable yes;

adjustTimeStep  yes;

maxCo       0.5;

maxDeltaT   0.05;

maxDi   5000;

functions
(
    nuField 
    {
        type writeRegisteredObject;
        functionObjectLibs ("libIOFunctionObjects.so");
        objectNames ("mu" "alpha");
        outputControl outputTime;
    }
);
// ************************************************************************* //
