/*--------------------------------*- C++ -*----------------------------------*\
| =========                 |                                                 |
| \\      /  F ield         | foam-extend: Open Source CFD                    |
|  \\    /   O peration     | Version:     4.1                                |
|   \\  /    A nd           | Web:         http://www.foam-extend.org         |
|    \\/     M anipulation  |                                                 |
\*---------------------------------------------------------------------------*/
FoamFile
{
    version     2.0;
    format      ascii;
    class       dictionary;
    location    "system";
    object      controlDict;
}
// * * * * * * * * * * * * * * * * * * * * * * * * * * * * * * * * * * * * * //

application     porousGasificationFoam;

startFrom       latestTime;

startTime       0; 

stopAt          endTime;

endTime         1;

deltaT          0.001; 

writeControl    adjustableRunTime;

writeInterval   0.1;

purgeWrite      0;

writeFormat     ascii;

writePrecision  10;

writeCompression uncompressed;

timeFormat      general;

timePrecision   6;

runTimeModifiable yes;

adjustTimeStep yes;

maxCo      0.2; 

maxDi      5000;

//maxDeltaT	0.01;

functions
(
    minMax
    {
        type        fieldMinMax;
        functionObjectLibs ("libfieldFunctionObjects.so");
        outputControl   timeStep;
        outputInterval  1;
        write       no;
        log         yes;
        location    yes;
        mode        magnitude;
        fields
        (
            p
        );
    }
);

// ************************************************************************* //
