/*--------------------------------*- C++ -*----------------------------------*\
| =========                 |                                                 |
| \\      /  F ield         | foam-extend: Open Source CFD                    |
|  \\    /   O peration     | Version:     4.1                                |
|   \\  /    A nd           | Web:         http://www.foam-extend.org         |
|    \\/     M anipulation  |                                                 |
\*---------------------------------------------------------------------------*/
FoamFile
{
    version     2.0;
    format      ascii;
    class       dictionary;
    object      extrudeProperties;
}
// * * * * * * * * * * * * * * * * * * * * * * * * * * * * * * * * * * * * * //

constructFrom patch;
sourceCase "$FOAM_CASE";

sourcePatches (front);
exposedPatchName back;

extrudeModel        wedge;

sectorCoeffs
{
    axisPt          (0 0 0);
    axis            (0 0 1);
    angle           1;
}

flipNormals false;
mergeFaces false;

// * * * * * * * * * * * * * * * * * * * * * * * * * * * * * * * * * * * * * //
