/*--------------------------------*- C++ -*----------------------------------*\
| =========                 |                                                 |
| \\      /  F ield         | foam-extend: Open Source CFD                    |
|  \\    /   O peration     | Version:     4.1                                |
|   \\  /    A nd           | Web:         http://www.foam-extend.org         |
|    \\/     M anipulation  |                                                 |
\*---------------------------------------------------------------------------*/
FoamFile
{
    version     2.0;
    format      ascii;
    class       dictionary;
    location    "constant";
    object      chemistryProperties;
}
// * * * * * * * * * * * * * * * * * * * * * * * * * * * * * * * * * * * * * //

chemistry           off;

psiChemistryModel   ODEChemistryModel<gasThermoPhysics>;

solidChemistryModel  ODESolidHeterogeneousChemistryModel<constSolidThermoPhysics,gasThermoPhysics>;

gasThermoModel      gasThermoPhysics;



chemistrySolver     ode;

solidChemistrySolver	solidOde;

initialChemicalTimeStep 1e-07;

turbulentReaction   off;
solidReactionEnergyFromEnthalpy false;
stoichiometricReactions false;
showRelativeReactionRates false;
solidChemistryTimeStepControl true;

odeCoeffs
{
    ODESolver       KRR4;
    eps             0.1;
    scale           1;
}

solidOdeCoeffs
{
    ODESolver   KRR4;
    eps			0.01;
    scale       1;
}

species
(
  air 
);

solidReactions
(
);


// ************************************************************************* //


