/*--------------------------------*- C++ -*----------------------------------*\
  =========                 |
  \\      /  F ield         | OpenFOAM: The Open Source CFD Toolbox
   \\    /   O peration     | Website:  https://openfoam.org
    \\  /    A nd           | Version:  8
     \\/     M anipulation  |
\*---------------------------------------------------------------------------*/
FoamFile
{
    version     2.0;
    format      ascii;
    class       dictionary;
    location    "system";
    object      controlDict;
}
// * * * * * * * * * * * * * * * * * * * * * * * * * * * * * * * * * * * * * //

application     porousGasificationFoam;

startFrom       latestTime;

startTime       0; 

stopAt          endTime;

endTime         1200;

deltaT          .001; 

writeControl    adjustableRunTime;

writeInterval   5;

purgeWrite      0;

writeFormat     ascii;

writePrecision  10;

writeCompression off;

timeFormat      general;

timePrecision   6;

runTimeModifiable yes;

adjustTimeStep yes;

maxCo       0.2; 

maxDi       5000;

maxDeltaT   0.01;

functions
{
    residuals
    {
        type            residuals;
        libs            ("libutilityFunctionObjects.so");
        fields          (p U Ts);
        writeControl    timeStep;
        writeInterval   1;
    }

    probes
    {
        type            probes;
        libs            ("libsampling.so");
        writeControl    timeStep;
        writeInterval   10;

        probeLocations
        (
            (0.0 0.0 1e-6)
            (0.0 0.00625 1e-6)
            (0.0 0.0122 1e-6)
        );

        fields
        (
            p
            Ts
            T
            N2
            targas
            gas
            Ywood
            Ychar
            Ychar1
            porosityF
            rhos
            Msolidtotal
            Ytarsolid
            Srho
        );
    }
}


// ************************************************************************* //
