/*--------------------------------*- C++ -*----------------------------------*\
| =========                 |                                                 |
| \\      /  F ield         | foam-extend: Open Source CFD                    |
|  \\    /   O peration     | Version:     4.1                                |
|   \\  /    A nd           | Web:         http://www.foam-extend.org         |
|    \\/     M anipulation  |                                                 |
\*---------------------------------------------------------------------------*/
FoamFile
{
    version     2.0;
    format      ascii;
    class       dictionary;
    location    "system";
    object      setFieldsDict;
}
// * * * * * * * * * * * * * * * * * * * * * * * * * * * * * * * * * * * * * //

defaultFieldValues
(
);

regions
(
    sphereToCell
    {
        centre (0 0 0);
        radius 0.0127;
        fieldValues
        (
            volScalarFieldValue porosityF 0.4 
            volScalarFieldValue porosityF0 0.4 
            volScalarFieldValue T   305
        );
    }
);

// ************************************************************************* //
