/*--------------------------------*- C++ -*----------------------------------*\
| =========                 |                                                 |
| \\      /  F ield         | foam-extend: Open Source CFD                    |
|  \\    /   O peration     | Version:     4.1                                |
|   \\  /    A nd           | Web:         http://www.foam-extend.org         |
|    \\/     M anipulation  |                                                 |
\*---------------------------------------------------------------------------*/
FoamFile
{
    version     2.0;
    format      ascii;
    class       dictionary;
    object      topoSetDict;
}

// * * * * * * * * * * * * * * * * * * * * * * * * * * * * * * * * * * * * * //

actions
(
    {
        name    porosity;
        type    cellSet;
        action  new;
        source  boxToCell;
        sourceInfo
        {
            box (0.049 -0.03 -0.03) (0.069 0.03 0.03);
        }
    }
    {
        name    porosity;
        type    cellZoneSet;
        action  new;
        source  setToCellZone;
        sourceInfo
        {
            set porosity;
        }
    }
);

// ************************************************************************* //
