/*--------------------------------*- C++ -*----------------------------------*\
| =========                 |                                                 |
| \\      /  F ield         | foam-extend: Open Source CFD                    |
|  \\    /   O peration     | Version:     4.1                                |
|   \\  /    A nd           | Web:         http://www.foam-extend.org         |
|    \\/     M anipulation  |                                                 |
\*---------------------------------------------------------------------------*/
FoamFile
{
    version     2.0;
    format      ascii;
    class       dictionary;
    location    "constant";
    object      radiationProperties;
}
// * * * * * * * * * * * * * * * * * * * * * * * * * * * * * * * * * * * * * //

radiation       on;  //era on

heterogeneousRadiationModel  heterogeneousP1;

// Number of flow iterations per radiation iteration
solverFreq 10;

heterogeneousAbsorptionEmissionModel heterogeneousConstantAbsorptionEmission;

// These values are chosen to support
// heating rate comparable with experimental borderL*borderAs
// mesh independence borderL

heterogeneousConstantAbsorptionEmissionCoeffs
{
    a               a  [ 0 -1  0 0 0 0 0 ] 0;   //era 20
    as              as [ 0 -1  0 0 0 0 0 ] 0;
    borderAs        borderAs [ 0 -1  0 0 0 0 0 ] 180;
    E               E  [ 1 -1 -3 0 0 0 0 ] 0.0;
    borderL         borderL  [ 0 1 0 0 0 0 0 ] 1.5e-3;
}

scatterModel    constantScatter;

constantScatterCoeffs
{
    sigma           sigma [ 0 -1 0 0 0 0 0 ] 1;
    C               C [ 0 0 0 0 0 0 0 ] 1;
}


// ************************************************************************* //
