/*--------------------------------*- C++ -*----------------------------------*\
| =========                 |                                                 |
| \\      /  F ield         | foam-extend: Open Source CFD                    |
|  \\    /   O peration     | Version:     4.1                                |
|   \\  /    A nd           | Web:         http://www.foam-extend.org         |
|    \\/     M anipulation  |                                                 |
\*---------------------------------------------------------------------------*/
FoamFile
{
    version     2.1;
    format      ascii;
    class       dictionary;
    location    "constant";
    object      radiationProperties;
}
// * * * * * * * * * * * * * * * * * * * * * * * * * * * * * * * * * * * * * //

radiation       off;

heterogeneousRadiationModel  none;

solverFreq 1;

heterogeneousAbsorptionEmissionModel heterogeneousConstantAbsorptionEmission;

heterogeneousConstantAbsorptionEmissionCoeffs
{
    a               a  [ 0 -1  0 0 0 0 0 ] 1.0e-2;
    as              as [ 0 -1  0 0 0 0 0 ] 1.0e-2;
    borderAs        borderAs [ 0 -1  0 0 0 0 0 ] 15;
    borderEs        borderEs [ 0  0  0 0 0 0 0 ] 15.0;
    E               E  [ 1 -1 -3 0 0 0 0 ] 0.0;
    borderL         borderL  [ 0 1 0 0 0 0 0 ] 1.5e-3;
}

scatterModel    constantScatter;

constantScatterCoeffs
{
    sigma           sigma [ 0 -1 0 0 0 0 0 ] 0;
    C               C [ 0 0 0 0 0 0 0 ] 0;
}


// ************************************************************************* //
